Circuit: * C:\Users\User1\Documents\GitHub\MOSH-project\LTSPICE\TP_elec\full_remplacement.asc

Direct Newton iteration for .op point succeeded.

Date: Wed Dec 15 13:53:14 2021
Total elapsed time: 1.088 seconds.

tnom = 27
temp = 27
method = modified trap
totiter = 123696
traniter = 123674
tranpoints = 61838
accept = 39738
rejected = 22100
matrix size = 16
fillins = 5
solver = Normal
Matrix Compiler1: 692 bytes object code size  0.4/0.2/[0.2]
Matrix Compiler2: 1.30 KB object code size  0.3/0.4/[0.3]

