Circuit: * U:\Windows\Bureau\TP_elec\full_remplacement.asc

Direct Newton iteration for .op point succeeded.

Date: Tue Nov 30 18:10:17 2021
Total elapsed time: 0.670 seconds.

tnom = 27
temp = 27
method = modified trap
totiter = 123696
traniter = 123674
tranpoints = 61838
accept = 39738
rejected = 22100
matrix size = 16
fillins = 5
solver = Normal
Matrix Compiler1: 692 bytes object code size  0.2/0.1/[0.1]
Matrix Compiler2: 1.30 KB object code size  0.1/0.1/[0.1]

